test/TEST190523/master-noPV.dss
Clear

New Circuit.MAI  baseKV=69 pu=1.05  R1=0.63 X1=6.72 R0=4.07 X0=15.55


redirect Bibliotecas/bibliotecas.dss
redirect MAI_LinesMV.dss
redirect MAI_Substation.dss
redirect MAI_Transformers.dss
redirect MAI_Capacitors.dss
redirect MAI_LinesLV.dss
redirect MAI_Loadshapes.dss
redirect MAI_LoadsLV.dss
!redirect MAI_DG.dss

!Layer Substation: SUB_1207
!Layers LinesMV_aer: MT_AEREA_1207,
!Layers LinesMV_sub: MT_SOTE,
!Layer Capacitors: CAPACITOR_16012023
!Layers LinesLV_aer: BT_AEREA_1205,
!Layers LoadsLV: CARGAS_BT_1207,
!Layers Transformers: TR_1207,

Set voltagebases=[345, 115, 69, 13.8, 12.5, 7.22, 4.16, 0.48, 0.415, 0.208]
Calcvoltagebases

redirect MAI_LV_KVBaseLN.dss
redirect MAI_MV_BaseKV_LN.dss

redirect MAI_Monitors.dss

! Define bus coordinates
Buscoords  MAI_BusListLV.csv
Buscoords  MAI_BusListMV.csv 